


@<TRIPOS>ATOM
      9 HB         0.00   0.00   0.00 H         1 VAL   -0.0221
      9 HB         1.00   1.00   1.00 H         1 VAL   -0.0221
      9 HB         -1.00   1.00   1.00 H         1 VAL   -0.0221      
      9 HB         1.00   1.00   -1.00 H         1 VAL   -0.0221
      9 HB         -1.00   1.00   -1.00 H         1 VAL   -0.0221
      9 HB         1.00   -1.00   1.00 H         1 VAL   -0.0221
      9 HB         -1.00   -1.00   1.00 H         1 VAL   -0.0221
      9 HB         1.00   -1.00   -1.00 H         1 VAL   -0.0221
      9 HB         -1.00   -1.00   -1.00 H         1 VAL   -0.0221
@<TRIPOS>BOND
     1    1    2 1